LTspice 24.1.3 for Windows
Circuit: D:\Projects\Automatsko-Osvetljenje\Simulation\Draft4.net
Start Time: Sat May 10 18:43:15 2025
solver = Normal
Maximum thread count: 24
tnom = 27
temp = 27
method = trap
.OP point found by inspection.
Total elapsed time: 0.047 seconds.

Files loaded:
D:\Projects\Automatsko-Osvetljenje\Simulation\Draft4.net
C:\Users\DarkOS\AppData\Local\LTspice\lib\cmp\standard.dio

