LTspice 24.1.3 for Windows
Circuit: D:\Projects\Automatsko-Osvetljenje\Simulation\Draft3.net
Start Time: Sat May 10 17:50:38 2025
solver = Normal
Maximum thread count: 24
tnom = 27
temp = 27
method = trap
Direct Newton iteration for .op point succeeded.
Total elapsed time: 0.137 seconds.

Files loaded:
D:\Projects\Automatsko-Osvetljenje\Simulation\Draft3.net
C:\Users\DarkOS\AppData\Local\LTspice\lib\cmp\standard.dio
C:\Users\DarkOS\AppData\Local\LTspice\lib\cmp\standard.mos

