LTspice 24.1.3 for Windows
Circuit: D:\Projects\Automatsko-Osvetljenje\Simulation\Draft2.net
Start Time: Sun Mar 30 15:26:16 2025
solver = Normal
Maximum thread count: 24
tnom = 27
temp = 27
method = trap
Direct Newton iteration for .op point succeeded.
Total elapsed time: 0.852 seconds.

Files loaded:
D:\Projects\Automatsko-Osvetljenje\Simulation\Draft2.net
C:\Users\DarkOS\AppData\Local\LTspice\lib\sub\MAX4163.lib

