LTspice 24.1.3 for Windows
Circuit: D:\Projects\Automatsko-Osvetljenje\Simulation\Draft1.net
Start Time: Tue Mar 25 21:59:27 2025
solver = Normal
Maximum thread count: 24
tnom = 27
temp = 27
method = trap
Direct Newton iteration for .op point succeeded.
Total elapsed time: 0.038 seconds.

Files loaded:
D:\Projects\Automatsko-Osvetljenje\Simulation\Draft1.net
C:\Users\DarkOS\AppData\Local\LTspice\lib\sub\LTC.lib

