LTspice 24.1.3 for Windows
Circuit: D:\Projects\Automatsko-Osvetljenje\Simulation\lm317.net
Start Time: Wed May  7 23:56:22 2025
solver = Normal
Maximum thread count: 24
tnom = 27
temp = 27
method = trap
Direct Newton iteration failed to find .op point.  (Use ".option noopiter" to skip.)
Starting Gmin stepping
Gmin = 10
Gmin = 1.07374
Gmin = 0.115292
Gmin = 0.0123794
Gmin = 0.00132923
Gmin = 0.000142725
Gmin = 1.5325e-05
Gmin = 1.6455e-06
Gmin = 1.76685e-07
vernier = 0.5
vernier = 0.25
Gmin = 5.14632e-08
vernier = 0.125
vernier = 0.166667
Gmin = 3.74767e-08
vernier = 0.222222
vernier = 0.296296
Gmin = 2.16446e-08
vernier = 0.395061
Gmin = 9.24235e-09
vernier = 0.526748
vernier = 0.702331
Gmin = 2.30362e-09
vernier = 0.936441
vernier = 1
Gmin = 3.01968e-10
Gmin = 3.24236e-11
Gmin = 3.48146e-12
Gmin = 3.73819e-13
Gmin = 0
Gmin stepping succeeded in finding the operating point.

Total elapsed time: 0.223 seconds.

Files loaded:
D:\Projects\Automatsko-Osvetljenje\Simulation\lm317.net
C:\Users\DarkOS\AppData\Local\LTspice\lib\cmp\standard.dio
C:\Users\DarkOS\AppData\Local\LTspice\lib\cmp\standard.mos
C:\Users\DarkOS\AppData\Local\LTspice\lib\sub\Contrib\Toshiba\BJT\TDTC114Y_enc.lib
C:\Users\DarkOS\AppData\Local\LTspice\lib\sub\LT317A.sub
C:\Users\DarkOS\AppData\Local\LTspice\lib\sub\NE555.sub

