LTspice 24.1.3 for Windows
Circuit: D:\Projects\Automatsko-Osvetljenje\Simulation\lm317.net
Start Time: Sun Mar 30 20:58:03 2025
solver = Normal
Maximum thread count: 24
tnom = 27
temp = 27
method = trap
Direct Newton iteration failed to find .op point.  (Use ".option noopiter" to skip.)
Starting Gmin stepping
Gmin = 10
Gmin = 1.07374
Gmin = 0.115292
Gmin = 0.0123794
Gmin = 0.00132923
Gmin = 0.000142725
Gmin = 1.5325e-05
Gmin = 1.6455e-06
Gmin = 1.76685e-07
vernier = 0.5
vernier = 0.25
Gmin = 5.14632e-08
vernier = 0.125
vernier = 0.0625
vernier = 0.0833333
Gmin = 4.47677e-08
vernier = 0.111111
vernier = 0.148148
Gmin = 3.44279e-08
vernier = 0.197531
Gmin = 2.25564e-08
vernier = 0.263374
vernier = 0.351165
Gmin = 1.13904e-08
vernier = 0.46822
vernier = 0.624294
Gmin = 3.93975e-09
vernier = 0.832392
Gmin = 7.41363e-10
vernier = 1
Gmin = 8.23643e-11
Gmin = 8.8438e-12
Gmin = 9.49595e-13
Gmin = 1.01962e-13
Gmin = 0
Gmin stepping succeeded in finding the operating point.

Total elapsed time: 0.291 seconds.

Files loaded:
D:\Projects\Automatsko-Osvetljenje\Simulation\lm317.net
C:\Users\DarkOS\AppData\Local\LTspice\lib\cmp\standard.dio
C:\Users\DarkOS\AppData\Local\LTspice\lib\cmp\standard.mos
C:\Users\DarkOS\AppData\Local\LTspice\lib\sub\Contrib\Toshiba\BJT\TDTC114Y_enc.lib
C:\Users\DarkOS\AppData\Local\LTspice\lib\sub\LT317A.sub
C:\Users\DarkOS\AppData\Local\LTspice\lib\sub\NE555.sub

